Structure1
                    3D
 Schrodinger Suite 2022-3.
  0  0  0     0  0            999 V3000
M  V30 BEGIN CTAB
M  V30 COUNTS 62 92 0 0 0
M  V30 BEGIN ATOM
M  V30 1 C  0.7267 -2.5859 2.2817 0
M  V30 2 C  1.1758 -1.4102 3.0084 0
M  V30 3 C  1.4102 -3.0084 1.1758 0
M  V30 4 C  2.2817 -0.7267 2.5859 0
M  V30 5 C  2.2817 0.7267 2.5859 0
M  V30 6 C  0.0000 -0.6835 3.4575 0
M  V30 7 C  0.0000 0.6835 3.4575 0
M  V30 8 C  1.1758 1.4102 3.0084 0
M  V30 9 C  -0.6835 -3.4575 0.0000 0
M  V30 10 C  -1.4102 -3.0084 1.1758 0
M  V30 11 C  0.6835 -3.4575 0.0000 0
M  V30 12 C  -0.7267 -2.5859 2.2817 0
M  V30 13 C  -1.1758 -1.4102 3.0084 0
M  V30 14 C  -2.5859 -2.2817 0.7267 0
M  V30 15 C  -3.0084 -1.1758 1.4102 0
M  V30 16 C  -2.2817 -0.7267 2.5859 0
M  V30 17 C  0.7267 -2.5859 -2.2817 0
M  V30 18 C  -0.7267 -2.5859 -2.2817 0
M  V30 19 C  1.4102 -3.0084 -1.1758 0
M  V30 20 C  -1.4102 -3.0084 -1.1758 0
M  V30 21 C  -2.5859 -2.2817 -0.7267 0
M  V30 22 C  -1.1758 -1.4102 -3.0084 0
M  V30 23 C  -2.2817 -0.7267 -2.5859 0
M  V30 24 C  -3.0084 -1.1758 -1.4102 0
M  V30 25 C  3.0084 -1.1758 -1.4102 0
M  V30 26 C  2.2817 -0.7267 -2.5859 0
M  V30 27 C  2.5859 -2.2817 -0.7267 0
M  V30 28 C  1.1758 -1.4102 -3.0084 0
M  V30 29 C  0.0000 -0.6835 -3.4575 0
M  V30 30 C  2.2817 0.7267 -2.5859 0
M  V30 31 C  1.1758 1.4102 -3.0084 0
M  V30 32 C  0.0000 0.6835 -3.4575 0
M  V30 33 C  3.0084 -1.1758 1.4102 0
M  V30 34 C  3.4575 -0.0000 0.6835 0
M  V30 35 C  2.5859 -2.2817 0.7267 0
M  V30 36 C  3.4575 -0.0000 -0.6835 0
M  V30 37 C  3.0084 1.1758 -1.4102 0
M  V30 38 C  3.0084 1.1758 1.4102 0
M  V30 39 C  2.5859 2.2817 0.7267 0
M  V30 40 C  2.5859 2.2817 -0.7267 0
M  V30 41 C  -0.7267 2.5859 -2.2817 0
M  V30 42 C  0.7267 2.5859 -2.2817 0
M  V30 43 C  1.4102 3.0084 -1.1758 0
M  V30 44 C  -1.4102 3.0084 -1.1758 0
M  V30 45 C  -3.0084 1.1758 -1.4102 0
M  V30 46 C  -2.2817 0.7267 -2.5859 0
M  V30 47 C  -1.1758 1.4102 -3.0084 0
M  V30 48 C  -2.5859 2.2817 -0.7267 0
M  V30 49 C  -3.0084 1.1758 1.4102 0
M  V30 50 C  -3.4575 -0.0000 0.6835 0
M  V30 51 C  -3.4575 -0.0000 -0.6835 0
M  V30 52 C  -2.5859 2.2817 0.7267 0
M  V30 53 C  -0.7267 2.5859 2.2817 0
M  V30 54 C  -1.1758 1.4102 3.0084 0
M  V30 55 C  -2.2817 0.7267 2.5859 0
M  V30 56 C  -1.4102 3.0084 1.1758 0
M  V30 57 C  0.6835 3.4575 0.0000 0
M  V30 58 C  1.4102 3.0084 1.1758 0
M  V30 59 C  0.7267 2.5859 2.2817 0
M  V30 60 C  -0.6835 3.4575 0.0000 0
M  V30 61 H  0.0000 -0.9035 4.5251 0
M  V30 62 H  0.0000 0.9035 4.5251 0
M  V30 END ATOM
M  V30 BEGIN BOND
M  V30 1 2 1 3
M  V30 2 1 1 2
M  V30 3 1 1 12
M  V30 4 2 2 4
M  V30 5 1 2 6
M  V30 6 1 3 11
M  V30 7 1 3 35
M  V30 8 1 4 5
M  V30 9 1 4 33
M  V30 10 2 5 8
M  V30 11 1 5 38
M  V30 12 1 6 7
M  V30 13 1 6 13
M  V30 14 1 6 61
M  V30 15 1 7 8
M  V30 16 1 7 54
M  V30 17 1 7 62
M  V30 18 1 8 59
M  V30 19 1 9 10
M  V30 20 2 9 11
M  V30 21 1 9 20
M  V30 22 2 10 12
M  V30 23 1 10 14
M  V30 24 1 11 19
M  V30 25 1 12 13
M  V30 26 2 13 16
M  V30 27 2 14 15
M  V30 28 1 14 21
M  V30 29 1 15 16
M  V30 30 1 15 50
M  V30 31 1 16 55
M  V30 32 1 17 18
M  V30 33 2 17 19
M  V30 34 1 17 28
M  V30 35 2 18 20
M  V30 36 1 18 22
M  V30 37 1 19 27
M  V30 38 1 20 21
M  V30 39 2 21 24
M  V30 40 2 22 23
M  V30 41 1 22 29
M  V30 42 1 23 24
M  V30 43 1 23 46
M  V30 44 1 24 51
M  V30 45 1 25 26
M  V30 46 2 25 27
M  V30 47 1 25 36
M  V30 48 2 26 28
M  V30 49 1 26 30
M  V30 50 1 27 35
M  V30 51 1 28 29
M  V30 52 2 29 32
M  V30 53 2 30 31
M  V30 54 1 30 37
M  V30 55 1 31 32
M  V30 56 1 31 42
M  V30 57 1 32 47
M  V30 58 1 33 34
M  V30 59 2 33 35
M  V30 60 2 34 36
M  V30 61 1 34 38
M  V30 62 1 36 37
M  V30 63 2 37 40
M  V30 64 2 38 39
M  V30 65 1 39 40
M  V30 66 1 39 58
M  V30 67 1 40 43
M  V30 68 2 41 44
M  V30 69 1 41 42
M  V30 70 1 41 47
M  V30 71 2 42 43
M  V30 72 1 43 57
M  V30 73 1 44 48
M  V30 74 1 44 60
M  V30 75 1 45 51
M  V30 76 1 45 46
M  V30 77 2 45 48
M  V30 78 2 46 47
M  V30 79 1 48 52
M  V30 80 1 49 55
M  V30 81 1 49 50
M  V30 82 2 49 52
M  V30 83 2 50 51
M  V30 84 1 52 56
M  V30 85 1 53 59
M  V30 86 1 53 54
M  V30 87 2 53 56
M  V30 88 2 54 55
M  V30 89 1 56 60
M  V30 90 1 57 58
M  V30 91 2 57 60
M  V30 92 2 58 59
M  V30 END BOND
M  V30 END CTAB
M  END
